Version 4
SHEET 1 880 680
WIRE 128 160 -80 160
WIRE 128 240 -80 240
SYMBOL nano_dyn 224 208 R0
SYMATTR InstName X1
SYMBOL current -80 160 R0
WINDOW 3 -236 139 Left 2
WINDOW 123 0 0 Left 0
WINDOW 39 0 0 Left 0
SYMATTR InstName I1
SYMATTR Value PULSE(0 1u 10n 10p 10p 100p 20n 10)
