Version 4
SHEET 1 880 680
TEXT 104 72 Left 2 !.PARAM t=10
TEXT 104 104 Left 2 !test
