Version 4
SHEET 1 880 680
TEXT -1624 -440 Left 2 !.PARAM psi={sheetRes*(Jc*thickness)**2/ (hc*(Tc-Tsub))}
TEXT -1624 -480 Left 2 !.PARAM sheetRes=400
TEXT -1624 -520 Left 2 !.PARAM Jc=50G
TEXT -1624 -808 Left 2 !.PARAM thickness=4n
TEXT -1616 -232 Left 2 !.PARAM hc = 50k
TEXT -1616 -168 Left 2 !.PARAM Tc=10.5
TEXT -1616 -200 Left 2 !.PARAM Tsub=2
TEXT -410 -868 Left 2 !.tran 0 1u 0 0.1u
TEXT -1624 -400 Left 2 !.PARAM Isw={Jc*width*thickness*C}
TEXT -1624 -840 Left 2 !.PARAM width=100n
TEXT -1624 -776 Left 2 !.PARAM C=1
TEXT -1624 -712 Left 2 !.PARAM length={width*Lind/inductivity}
TEXT -1624 -872 Left 2 !.PARAM Lind=100n
TEXT -1624 -744 Left 2 !.PARAM inductivity = {1.38p*sheetRes/Tc}
TEXT -1624 -680 Left 2 !.PARAM squares={length/width}
TEXT -1616 -296 Left 2 !.PARAM kappa = 0.108
TEXT -1616 -264 Left 2 !.PARAM heatCapacity = 4400
TEXT -1624 -648 Left 2 !.PARAM minSquares = 1
TEXT -1624 -616 Left 2 !.PARAM maxSquares = 4
TEXT -992 -904 Left 2 !.PARAM f={sqrt(2/psi)*.76}
TEXT -992 -872 Left 2 !.PARAM Ihs={f*Isw}
TEXT -992 -840 Left 2 !.PARAM gain={10}
TEXT -992 -808 Left 2 !.PARAM epsilon = {0.05}
