Version 4
SHEET 1 880 680
WIRE -320 -16 -528 -16
WIRE 336 -16 -240 -16
WIRE 368 -16 336 -16
WIRE 736 -16 448 -16
WIRE 736 96 736 -16
WIRE 336 144 336 -16
WIRE 336 144 256 144
WIRE -528 160 -528 -16
WIRE 128 160 -80 160
WIRE 128 240 -80 240
WIRE -80 272 -80 240
WIRE 736 272 736 176
WIRE 736 272 256 272
WIRE 736 304 736 272
FLAG -528 240 0
FLAG 736 304 0
FLAG -80 272 0
SYMBOL current -80 160 R0
WINDOW 3 -236 139 Left 2
WINDOW 123 0 0 Left 0
WINDOW 39 0 0 Left 0
SYMATTR Value PULSE(0 1u 10n 10p 10p 100p 20n 10)
SYMATTR InstName I1
SYMBOL voltage -528 144 R0
WINDOW 123 0 0 Left 0
WINDOW 39 0 0 Left 0
SYMATTR InstName V1
SYMATTR Value 1.8
SYMBOL res -224 -32 R90
WINDOW 0 0 56 VBottom 2
WINDOW 3 32 56 VTop 2
SYMATTR InstName R1
SYMATTR Value 100k
SYMBOL ind 352 0 R270
WINDOW 0 32 56 VTop 2
WINDOW 3 5 56 VBottom 2
SYMATTR InstName L1
SYMATTR Value 100n
SYMBOL res 720 80 R0
SYMATTR InstName R2
SYMATTR Value 50
SYMBOL spd_MoSi 224 208 R0
WINDOW 39 142 40 Bottom 2
SYMATTR InstName X1
SYMATTR SpiceLine num_sq=7000, width=120n
TEXT -560 328 Left 2 !.tran 0 100n 0 1p
