Version 4
SHEET 1 1848 680
WIRE -496 -352 -592 -352
WIRE 256 -352 144 -352
WIRE -592 -320 -592 -352
WIRE 144 -304 144 -352
WIRE -496 -288 -496 -352
WIRE 256 -288 256 -352
WIRE -352 -128 -496 -128
WIRE -144 -128 -272 -128
WIRE 96 -128 -64 -128
WIRE 256 -128 192 -128
WIRE 336 -128 256 -128
WIRE 592 -128 416 -128
WIRE 800 -112 800 -192
WIRE 256 -64 256 -128
WIRE -496 -48 -496 -128
WIRE -496 -48 -576 -48
WIRE -704 -32 -912 -32
WIRE -144 -16 -144 -128
WIRE -64 -16 -64 -128
WIRE -704 48 -912 48
WIRE 256 48 256 32
WIRE 800 48 800 -32
WIRE -912 80 -912 48
WIRE -512 80 -576 80
WIRE -512 160 -512 80
WIRE -144 160 -144 64
WIRE -64 160 -64 64
WIRE 256 160 256 128
FLAG -912 80 0
FLAG -512 160 0
FLAG -592 -320 0
FLAG -144 160 0
FLAG -64 160 0
FLAG 256 160 0
FLAG 144 -304 0
FLAG 592 -128 out
FLAG 800 48 0
FLAG 800 -192 av
SYMBOL current -912 -32 R0
WINDOW 3 -236 139 Left 2
WINDOW 123 0 0 Left 0
WINDOW 39 0 0 Left 0
SYMATTR Value PULSE(0 1u 10n 10p 10p 100p 10n 20)
SYMATTR InstName I1
SYMBOL spd_MoSi -608 16 R0
WINDOW 39 6 196 Bottom 2
SYMATTR SpiceLine num_sq=515.6, width=120n
SYMATTR InstName X1
SYMBOL current -496 -288 R0
WINDOW 123 0 0 Left 0
WINDOW 39 0 0 Left 0
SYMATTR InstName I2
SYMATTR Value 20µ
SYMBOL res -256 -144 R90
WINDOW 0 0 56 VBottom 2
WINDOW 3 32 56 VTop 2
SYMATTR InstName R1
SYMATTR Value 36.8
SYMBOL ind2 -160 -32 R0
WINDOW 0 -53 29 Left 2
WINDOW 3 -122 84 Left 2
SYMATTR InstName L1
SYMATTR Value 1.46E-09
SYMATTR Type ind
SYMBOL ind2 -80 -32 R0
SYMATTR InstName L2
SYMATTR Value 0.5E-11
SYMATTR Type ind
SYMBOL JJ 144 -128 R90
WINDOW 0 -32 0 VBottom 2
SYMATTR InstName U1
SYMATTR SpiceLine I_c=100u R_tot=4 L_rjs=0.01p C_jj=102f phi0=0
SYMBOL JJ 256 -16 R180
SYMATTR InstName U2
SYMATTR SpiceLine I_c=100u R_tot=4 L_rjs=0.01p C_jj=102f phi0=0
SYMBOL current 256 -288 R0
WINDOW 123 0 0 Left 0
WINDOW 39 0 0 Left 0
SYMATTR InstName I3
SYMATTR Value 220µ
SYMBOL res -512 -224 R0
SYMATTR InstName R2
SYMATTR Value 50
SYMBOL res 240 -224 R0
SYMATTR InstName R3
SYMATTR Value 50
SYMBOL res 432 -144 R90
WINDOW 0 0 56 VBottom 2
WINDOW 3 32 56 VTop 2
SYMATTR InstName R4
SYMATTR Value 50
SYMBOL bv 800 -128 R0
SYMATTR InstName B1
SYMATTR Value V=idt(V(out)-absdelay(V(out),10n))/10n
SYMBOL ind2 272 144 R180
WINDOW 0 -41 86 Left 2
WINDOW 3 -119 44 Left 2
SYMATTR InstName L3
SYMATTR Value 0.5E-11
SYMATTR Type ind
TEXT -256 -568 Left 2 !.tran 0 100n 0 1p
TEXT -144 208 Left 2 !K1 L1 L2 0
